<!DOCTYPE HTML PUBLIC "-//W3C//DTD HTML 4.01 Transitional//EN" "http://www.w3.org/TR/html4/loose.dtd">
<html>
<head>
<meta http-equiv="X-UA-Compatible" content="IE=8" />
<meta http-equiv="Content-Type" content="text/html; charset=iso-8859-1">
<title>70--Renewal of LS-DYNA Licenses - Federal Business Opportunities: Opportunities</title>
<link rel="shortcut icon" href="/favicon.ico">
<link rel="stylesheet" type="text/css" href="https://static.symplicity.com/yui/build/container/assets/skins/sam/container.css?t=1309361679&css=container" media="all">

<link rel="stylesheet" href="/css/frontend.css?v44" type="text/css">

<link rel="stylesheet" href="/css/fbo.css?v44" type="text/css">


<script type="text/javascript">
var PRINT_PREVIEW = 0;
</script>


<script type="text/javascript" src="https://static.symplicity.com/yui/build/yahoo-dom-event/yahoo-dom-event.js?t=1336141012"></script>
<script type="text/javascript" src="https://static.symplicity.com/yui/build/dragdrop/dragdrop-min.js?t=1309361659"></script>
<script type="text/javascript" src="https://static.symplicity.com/yui/build/container/container-min.js?t=1309361681"></script>
<script type="text/javascript" src="https://static.symplicity.com/yui/build/connection/connection-min.js?t=1309361653"></script>
<script type="text/javascript" src="/js/fbo.js?t=1280525208"></script>
<script type="text/javascript" src="https://static.symplicity.com/js/dhtml_utils.js?t=1384984983"></script>
<script type="text/javascript" src="/popwin/windows.js?t=1206743977"></script>
<script type="text/javascript" src="/js/cache/f/f1cda7ddd21c046db12ed16d7e0a0632.js"></script>

<script type="text/javascript">
function printPreview() {
    var w = window.open('/index?print_preview=1&version=1392488213');
}
function printQuick() {
    frame = frames['__hiddenframe'+nextFrame()];
    frame.location.href = '/index?print_preview=1&print_dialog=1&version=1392488213';
}
function printMe() {
  if (typeof(window.print) == 'function') {
    window.print();
  }
  else {
    print();
  }
}
function printPreviewNow() {
	if (document.getElementById('stylesheet_print')) {
		var s = document.getElementById('stylesheet_print');
		var p = document.createElement('link');
		var m = (s.getAttribute('media') == 'print') ? 'all' : 'print';
		p.setAttribute('id',s.getAttribute('id'));
		p.setAttribute('rel',s.getAttribute('rel'));
		p.setAttribute('href',s.getAttribute('href'));
		p.setAttribute('media',m);
		
		document.getElementsByTagName('head')[0].replaceChild(p,s);
	} else {
		alert("Stylesheet with id 'stylesheet_print' not found.");
	}
}


</script>
</head>
<body class="yui-skin-sam html4 " onload="">
<div id="overDiv"></div>
	<div class="sys-vendor"><div class="sec-opportunity">
				<div class="acc_hide">
						<h1>Accessibility Information</h1>
			<p>Users of assistive technologies such as screen readers should use the following link to activate <em>Accessibility Mode</em> before continuing: <a href="/accessibility">Learn more and Activate accessibility mode.</a></p>
						<ul>
				<li><a href="#content" title="Skip to content">Skip to content</a></li>				
				<li><a href="#tabs" title="Skip to tabs">tabs</a></li>
				<li><a href="#nav" title="Skip to main menu">main menu</a></li>
												<li><a href="/accessibility" title="Turn on Accessibility Mode">Accessibility Mode</a></li>
			</ul>
		</div>
			
		<div id="bodywrap">
						<div id="ftw">
				<div id="ftl"></div>
				<div id="ftr"></div>
			</div>
						<div id="c">
												<div id="h">			
					<h1><a href="/?s=main&amp;mode=list&amp;tab=list" 
													title="Federal Business Opportunities"
												>Federal Business Opportunities</a></h1>
					<ul>
						<li><a href="http://www.acquisition.gov/" title="Visit IAE" target="iae" id="plnk-iae"><span>IAE</span></a></li>
						<li><a href="http://www.egov.gov/" title="Visit eGov" id="plnk-egov" target="egov"><span>eGov</span></a></li>
						<li><a href="http://www.usa.gov/" title="Visit USA.gov" id="plnk-usagov" target="usagov"><span>USA.gov</span></a></li>
					</ul>			
				</div>
								<a name="nav"></a>
				<ul id="n">
									<li>
						<a href="?s=main&mode=list&tab=list" title="Home">
            	
						<img src="/images/frontend/n-pub-main.jpg" alt="Home">
					</a>
					</li>
									<li>
						<a href="?s=getstart&mode=list&tab=list" title="Getting Started">
            	
						<img src="/images/frontend/n-pub-getstart.jpg" alt="Getting Started">
					</a>
					</li>
									<li>
						<a href="?s=generalinfo&mode=list&tab=list" title="General Info">
            	
						<img src="/images/frontend/n-pub-generalinfo.jpg" alt="General Info">
					</a>
					</li>
									<li>
						<a href="?s=opportunity&mode=list&tab=list" title="Opportunities">
            	
						<img src="/images/frontend/n-pub-opportunity-hi.jpg" alt="Opportunities">
					</a>
					</li>
									<li>
						<a href="?s=agency&mode=list&tab=list" title="Agencies">
            	
						<img src="/images/frontend/n-pub-agency.jpg" alt="Agencies">
					</a>
					</li>
									<li>
						<a href="?s=privacy&mode=list&tab=list" title="Privacy">
            	
						<img src="/images/frontend/n-pub-privacy.jpg" alt="Privacy">
					</a>
					</li>
								</ul>
				<div class="clr"></div>
							
								<div id="cc">
										
										<ul id="tls">
																	<li><h4>Buyers: </h4><a href="https://www.fbo.gov/?s=main&tab=list&mode=list&amp;focus=blogin">Login</a> | <a href="https://www.fbo.gov/?s=main&amp;tabmode=list&amp;_lsys=buyer&amp;tab=register2&amp;subtab=step1&amp;mode=list">Register</a></li>
												<li><h4>Vendors: </h4><a href="https://www.fbo.gov/?s=main&amp;tab=list&amp;mode=list&amp;focus=vlogin">Login</a> | <a href="https://www.fbo.gov/?s=main&amp;mode=list&amp;tab=register&amp;subtab=step1">Register</a></li>
																					<li><a href="/accessibility" title="Turn on Accessibility Mode" class="icn-acc">Accessibility</a></li>
														
					</ul>
						
					
										
<a name="content" id="content-id"></a>
	
<div class="ttl">
			<div class="agency-header-w"><div class="agency-logo"><img src="/utils/view?id=2a4076acb571a587f8008b8e272d73a9&inline_disposition=1" border="0" alt="Bureau of Reclamation logo"></div><div class="agency-header"><h2>70--Renewal of LS-DYNA Licenses</h2><div class="sol-num">Solicitation Number: R14PS40133349</div><div class="agency-name">Agency: Department of the Interior<br>Office: Bureau of Reclamation<br>Location: BOR - All Ofices</div></div></div>
	</div>




<a name="tabs"></a>

					
					<div id="ptls-w">
	<ul id="ptls">
		<li><a href="?s=opportunity&mode=form&id=acc3ac36e526f587df5f3cb461ba6b30&tab=core&tabmode=list&print_preview=1" class="print" target="print">Print</a></li>		<li><a href="https://www.fbo.gov/notices/acc3ac36e526f587df5f3cb461ba6b30" class="bkmrk permalink">Link</a><div id="permalink_instr" class="acc_hide"><div class="hd">Copy or Bookmark this Page</div><div class="bd"><p><label for="permalink_field">Copy the url below for a direct link to this page.</label><br><input type="text" value="https://www.fbo.gov/notices/acc3ac36e526f587df5f3cb461ba6b30" id="permalink_field" style="width:460px"></p><p style="line-height: normal">Bookmark this page by right-clicking <b><a href="https://www.fbo.gov/notices/acc3ac36e526f587df5f3cb461ba6b30" style="color:#00f">here</a></b> and choosing "Add to Favorites"</p></div></div></li>	</ul>
</div>


	<ul class="tbrw indent-tabs">
					<li class="hi"><a href="/index?s=opportunity&mode=form&id=acc3ac36e526f587df5f3cb461ba6b30&tab=core&tabmode=list&=" title="You are viewing the Notice Details tab.">Notice Details</a></li>
					<li><a href="/index?s=opportunity&mode=form&id=acc3ac36e526f587df5f3cb461ba6b30&tab=documents&tabmode=list" title="Open the Packages tab.">Packages</a></li>
					<li><a href="/index?s=opportunity&mode=form&id=acc3ac36e526f587df5f3cb461ba6b30&tab=ivl&tabmode=list" title="Open the Interested Vendors List tab.">Interested Vendors List</a></li>
			</ul>
	<div class="clr"></div>

	
	
<div class="mc">
		<table class='layout'>
<tr>
<td class="sidebar-left notice-hist">
<h3>Opportunity History</h3>
<ul id="sb_related_notices" class="doclist"><li class="last"><span class="active">Original Synopsis</span><div class="nh-date">Feb 14, 2014</div><div class="nh-date">12:50 pm</div></li></ul>
</td>
<td class='maincol' style='width:80%'>

<div class="clr"></div><div class="buttonbar_top noticebuttons_top">
<input type="button" value="Return To Opportunities List" onclick="self.location.href='/index?s=opportunity&mode=list'" class="input-button btn">  <input type="button" title="Register to receive email notifications for this solicitation" alt="Register to receive email notifications for this solicitation" value="Watch This Opportunity" onclick="self.location.href='/index?s=main&mode=list&tab=login&_atwl=acc3ac36e526f587df5f3cb461ba6b30'" class="input-button btn"> <input type="button" value="Add Me To Interested Vendors" onclick="self.location.href='/index?s=main&mode=list&tab=login&_ivl=acc3ac36e526f587df5f3cb461ba6b30'" class="input-button btn btn_add">  </div>

<div class="form readonly procurement_notice_tmpl">






<div class="formbody">
<div id="_fieldgroup__default_section" class="fieldgroup fgfirst fglast">
  

	





		

<div id="so_formfield_dnf_class_values_procurement_notice__solicitation_number_" class="field first field-first fld_solicitation_number fld-ro">

            <div class="label" id="dnf_class_values_procurement_notice__solicitation_number__field-label">
	<label for="dnf_class_values_procurement_notice__solicitation_number_">Solicitation Number</label><span class="req-indicator"></span>:
      </div>
            
      	 	<div class="widget" id="dnf_class_values_procurement_notice__solicitation_number__widget">
	R14PS40133349
	</div><!-- widget -->
	
        </div><!--field ( Solicitation Number )-->

		

<div id="so_formfield_dnf_class_values_procurement_notice__procurement_type_" class="field fld_procurement_type fld-ro">

            <div class="label" id="dnf_class_values_procurement_notice__procurement_type__field-label">
	<label for="dnf_class_values_procurement_notice__procurement_type_">Notice Type</label><span class="req-indicator"></span>:
      </div>
            
      	 	<div class="widget" id="dnf_class_values_procurement_notice__procurement_type__widget">
	Combined Synopsis/Solicitation
	</div><!-- widget -->
	
        </div><!--field ( Notice Type )-->
<div class="clr"></div>

		

<div id="so_formfield_dnf_class_values_procurement_notice__description_" class="field fld_description fld-ro">

            <div class="label" id="dnf_class_values_procurement_notice__description__field-label">
	<label for="dnf_class_values_procurement_notice__description_">Synopsis</label><span class="req-indicator"></span>:
      </div>
            
      	 	<div class="widget" id="dnf_class_values_procurement_notice__description__widget">
			<div class="notice_desc_dates">
				<span class="added">Added: <input type="hidden" name="dnf_class_values[procurement_notice][description][0][added_on]" value="2014-02-14 12:50:40">Feb 14, 2014 12:50 pm</span>
					</div>
		This is a combined synopsis/solicitation for commercial items prepared in accordance with the format in FAR Subpart 12.6, as supplemented with additional information included in this notice.The solicitation number is R14PS40133349 and is issued as an invitation for bids (IFB), unless otherwise indicated herein.The solicitation document and incorporated provisions and clauses are those in effect through Federal Acquisition Circular FAC 2005-72. The associated North American Industrial Classification System (NAICS) code for this procurement is 541511 with a small business size standard of $25.50M.This requirement is a [ Small Business ] set-aside and only qualified offerors may submit bids.The solicitation pricing on www.FedBid.com will start on the date this solicitation is posted and will end on 2014-02-18 17:00:00.0 Eastern Time or as otherwise displayed at www.FedBid.com.FOB Destination shall be Denver, CO 80225 <BR> <BR>The Bureau of Reclamation requires the following items, Exact Match Only, to the following:  <BR><span class="label">LI 001: </span>Core Annual LS-Dyna Licenses, 58, EA; <BR> <BR><a href="https://marketplace.fedbid.com/fbweb/fbobuyDetails.do?token=%3D%3DwBKxmaVGYR9CTgF3wMAOcRQAAAAAHeAAgAgTFCGg%2FFzzqQbJAAyVXBA0Or">Solicitation and Buy Attachments </a> <BR> <BR>***Question Submission: Interested offerors must submit any questions concerning the solicitation at the earliest time possible to enable the Buyer to respond. Questions must be submitted by using the 'Submit a Question' feature at www.fedbid.com. Questions not received within a reasonable time prior to close of the solicitation may not be considered.*** <BR> <BR>For this solicitation, Bureau of Reclamation intends to conduct an online competitive reverse auction to be facilitated by the third-party reverse auction provider, FedBid, Inc. FedBid has developed an online, anonymous, browser based application to conduct the reverse auction. An Offeror may submit a series of pricing bids, which descend in price during the specified period of time for the aforementioned reverse auction. Bureau of Reclamation is taking this action in an effort to improve both vendor access and awareness of requests and the agency's ability to gather multiple, competed, real-time bids.All responsible Offerors that respond to this solicitation MUST submit the pricing portion of their bid using the online exchange located at www.FedBid.com. There is no cost to register, review procurement data or make a bid on www.FedBid.com.Offerors that are not currently registered to use www.FedBid.com should proceed to www.FedBid.com to complete their free registration. Offerors that require special considerations or assistance may contact the FedBid Helpdesk at 877-9FEDBID (877-933-3243) or via email at clientservices@fedbid.com. Offerors may not artificially manipulate the price of a transaction on www.FedBid.com by any means. It is unacceptable to place bad faith bids, to use decoys in the www.FedBid.com process or to collude with the intent or effect of hampering the competitive www.FedBid.com process.Should offerors require additional clarification, notify the point of contact or FedBid at 877-9FEDBID (877-933-3243) or clientservices@fedbid.com.Use of FedBid:   Buyers and Sellers agree to conduct this transaction through FedBid in compliance with the FedBid Terms of Use. Failure to comply with the below terms and conditions may result in offer being determined as non-responsive. <BR> <BR>New Equipment ONLY; NO remanufactured or "gray market" items.  All items must be covered by the manufacturer's warranty. <BR> <BR>Bid MUST be good for 30 calendar days after close of Buy. <BR> <BR>Shipping must be free on board (FOB) destination CONUS (Continental U.S.), which means that the seller must deliver the goods on its conveyance at the destination specified by the buyer, and the seller is responsible for the cost of shipping and risk of loss prior to actual delivery at the specified destination. <BR> <BR>This solicitation requires registration with the System for Award Management (SAM) prior to award, pursuant to applicable regulations and guidelines.  Registration information can be found at www.sam.gov. <BR> <BR>The selected Offeror must comply with the following commercial item terms and conditions, which are incorporated herein by reference: FAR 52.212-1, Instructions to Offerors - Commercial Items, applies to this acquisition; FAR 52.212-3, Offeror Representations and Certifications - Commercial Items - the selected offeror must submit a completed copy of the listed representations and certifications; FAR 52.212-4, Contract Terms and Conditions - Commercial Items; FAR 52.212-5, Contract Terms and Conditions Required To Implement Statutes or Executive Orders-Commercial Items, paragraph (a) and the following clauses in paragraph (b): 52.222-21, 52.222-26, 52.222-35, 52.222-36, 52.222-37, 52.225-13, 52.232-34. The full text of the referenced FAR clauses may be accessed electronically at https://www.acquisition.gov/far/. <BR> <BR>Award will be made to the vendor proposing the lowest total price that meets the requirements of Buy. (Lowest Price, Technically Acceptable) <BR> <BR>To be considered for award, all Sellers must be manufacturer/ Federally authorized distributors of the equipment/services they are offering with a demonstrated capability of delivering the entire order within the time frames specified by the Buyer on the award. Sellers may be required to provide documentation as proof of authorization to be considered for award. <BR> <BR>


	</div><!-- widget -->
	
        </div><!--field ( Synopsis )-->

		

<div id="so_formfield_dnf_class_values_procurement_notice__additional_info_link_" class="field fld_additional_info_link fld-ro">

            <div class="label" id="dnf_class_values_procurement_notice__additional_info_link__field-label">
	<label for="dnf_class_values_procurement_notice__additional_info_link_">Additional Info</label><span class="req-indicator"></span>:
      </div>
            
      	 	<div class="widget" id="dnf_class_values_procurement_notice__additional_info_link__widget">
	<a href="http://www.fedbid.com" target="_blank">www.fedbid.com (b-588942, n-132140)</a>
	</div><!-- widget -->
	
        </div><!--field ( Additional Info )-->

		

<div id="so_formfield_dnf_class_values_procurement_notice__office_address_text_" class="field fld_office_address_text fld-ro">

            <div class="label" id="dnf_class_values_procurement_notice__office_address_text__field-label">
	<label for="dnf_class_values_procurement_notice__office_address_text_">Contracting Office Address</label><span class="req-indicator"></span>:
      </div>
            
      	 	<div class="widget" id="dnf_class_values_procurement_notice__office_address_text__widget">
	Denver Federal Center, Denver, CO 80225
	</div><!-- widget -->
	
        </div><!--field ( Contracting Office Address )-->

		

<div id="so_formfield_dnf_class_values_procurement_notice__place_of_performance_text_" class="field fld_place_of_performance_text fld-ro">

            <div class="label" id="dnf_class_values_procurement_notice__place_of_performance_text__field-label">
	<label for="dnf_class_values_procurement_notice__place_of_performance_text_">Place of Performance</label><span class="req-indicator"></span>:
      </div>
            
      	 	<div class="widget" id="dnf_class_values_procurement_notice__place_of_performance_text__widget">
	Denver, CO 80225<br />
80225<br />
US
	</div><!-- widget -->
	
        </div><!--field ( Place of Performance )-->

		

<div id="so_formfield_dnf_class_values_procurement_notice__poc_text_" class="field last field-last fld_poc_text fld-ro">

            <div class="label" id="dnf_class_values_procurement_notice__poc_text__field-label">
	<label for="dnf_class_values_procurement_notice__poc_text_">Point of Contact(s)</label><span class="req-indicator"></span>:
      </div>
            
      	 	<div class="widget" id="dnf_class_values_procurement_notice__poc_text__widget">
	Name: Client Services, Title: Client Services, Phone: 1.877.933.3243, Fax: 703.422.7822, Email: Clientservices@fedbid.com;
	</div><!-- widget -->
	
        </div><!--field ( Point of Contact(s) )-->


</div></div>





</div>
<div class="clr"></div><div class="buttonbar noticebuttons">
<input type="button" value="Return To Opportunities List" onclick="self.location.href='/index?s=opportunity&mode=list'" class="input-button btn">  <input type="button" title="Register to receive email notifications for this solicitation" alt="Register to receive email notifications for this solicitation" value="Watch This Opportunity" onclick="self.location.href='/index?s=main&mode=list&tab=login&_atwl=acc3ac36e526f587df5f3cb461ba6b30'" class="input-button btn"> <input type="button" value="Add Me To Interested Vendors" onclick="self.location.href='/index?s=main&mode=list&tab=login&_ivl=acc3ac36e526f587df5f3cb461ba6b30'" class="input-button btn btn_add">  </div>
</td><td valign=top class='sidebar'>
<div class="sb">
	<h3 class="sb-head"><span class="sb-head-left">General Information</span></h3>
	<div class="sb-body">

<div class="form readonly stacked default_tmpl">





<div class="formbody">


<div id="_fieldgroup__default_section" class="fieldgroup fgfirst fglast">
  	
	  	
	  	  
    
	






	
<div id="so_formfield_dnf_class_values_procurement_notice__procurement_type_" class="field first field-first default_field_tmpl fld_procurement_type fld-ro">
            <div class="label" id="dnf_class_values_procurement_notice__procurement_type__field-label">
	Notice Type:      </div>
            
      	 	<div class="widget" id="dnf_class_values_procurement_notice__procurement_type__widget">
	Combined Synopsis/Solicitation
		</div><!-- widget -->
	
        </div>

	
<div id="so_formfield_dnf_class_values_procurement_notice__posted_date_" class="field default_field_tmpl fld_posted_date fld-ro">
            <div class="label" id="dnf_class_values_procurement_notice__posted_date__field-label">
	Posted Date:      </div>
            
      	 	<div class="widget" id="dnf_class_values_procurement_notice__posted_date__widget">
	February 14, 2014
		</div><!-- widget -->
	
        </div>

	
<div id="so_formfield_dnf_class_values_procurement_notice__response_deadline_" class="field default_field_tmpl fld_response_deadline fld-ro">
            <div class="label" id="dnf_class_values_procurement_notice__response_deadline__field-label">
	Response Date:      </div>
            
      	 	<div class="widget" id="dnf_class_values_procurement_notice__response_deadline__widget">
	February 18, 2014
		</div><!-- widget -->
	
        </div>

	
<div id="so_formfield_dnf_class_values_procurement_notice__archive_type_" class="field default_field_tmpl fld_archive_type fld-ro">
            <div class="label" id="dnf_class_values_procurement_notice__archive_type__field-label">
	Archiving Policy:      </div>
            
      	 	<div class="widget" id="dnf_class_values_procurement_notice__archive_type__widget">
	Automatic, on specified date
		</div><!-- widget -->
	
        </div>

	
<div id="so_formfield_dnf_class_values_procurement_notice__archive_date_" class="field default_field_tmpl fld_archive_date fld-ro">
            <div class="label" id="dnf_class_values_procurement_notice__archive_date__field-label">
	Archive Date:      </div>
            
      	 	<div class="widget" id="dnf_class_values_procurement_notice__archive_date__widget">
	August 17, 2014
		</div><!-- widget -->
	
        </div>

	
<div id="so_formfield_dnf_class_values_procurement_notice__original_set_aside_" class="field default_field_tmpl fld_original_set_aside fld-ro">
            <div class="label" id="dnf_class_values_procurement_notice__original_set_aside__field-label">
	Original Set Aside:      </div>
            
      	 	<div class="widget" id="dnf_class_values_procurement_notice__original_set_aside__widget">
	N/A
		</div><!-- widget -->
	
        </div>

	
<div id="so_formfield_dnf_class_values_procurement_notice__set_aside_" class="field default_field_tmpl fld_set_aside fld-ro">
            <div class="label" id="dnf_class_values_procurement_notice__set_aside__field-label">
	Set Aside:      </div>
            
      	 	<div class="widget" id="dnf_class_values_procurement_notice__set_aside__widget">
	Total Small Business
		</div><!-- widget -->
	
        </div>

	
<div id="so_formfield_dnf_class_values_procurement_notice__classification_code_" class="field last field-last default_field_tmpl fld_classification_code fld-ro">
            <div class="label" id="dnf_class_values_procurement_notice__classification_code__field-label">
	Classification Code:      </div>
            
      	 	<div class="widget" id="dnf_class_values_procurement_notice__classification_code__widget">
	70 -- General purpose information technology equipment
		</div><!-- widget -->
	
        </div>


</div><!--fieldgroup-->
</div>

  



</div><!--default--></div>
</div>

</td></tr>
</table>
	
</div>

				</div><!-- #cc content-content! -->
			</div><!-- #c content -->

						
			<div id="f" class="clearfix">
				<ul id="flnk">
													        <li><a href="/utils/help_desk" alt="help desk" title="help desk"  target="_blank"> For Help: Federal Service Desk</a></li>
            					<li class="flnk"><a href="/accessibility" title="Turn on Accessibility Mode">Accessibility</a></li>
				</ul>
			</div>
					</div><!-- #bodywrap -->
		<div id="fft"></div>		<div style="position:absolute;visibilty:hidden;left:-9999px;">
						<iframe name="__hiddenframe1" src="https://static.symplicity.com/blank.htm" width="1" height="1" frameborder="0" title="please ignore this frame"></iframe>
						<iframe name="__hiddenframe2" src="https://static.symplicity.com/blank.htm" width="1" height="1" frameborder="0" title="please ignore this frame"></iframe>
						<iframe name="__hiddenframe3" src="https://static.symplicity.com/blank.htm" width="1" height="1" frameborder="0" title="please ignore this frame"></iframe>
						<iframe name="__hiddenframe4" src="https://static.symplicity.com/blank.htm" width="1" height="1" frameborder="0" title="please ignore this frame"></iframe>
						<iframe name="__hiddenframe5" src="https://static.symplicity.com/blank.htm" width="1" height="1" frameborder="0" title="please ignore this frame"></iframe>
					</div>
		<script type="text/javascript">
				</script>
			
	</div></div>
<div id="popdiv_placeholder"></div>
<div id="dialog_placeholder"></div>
<div id="modal_dialog_placeholder"></div>
</body>
</html>